Start Prologue v2.5.3 Mon Jan 17 16:14:12 EST 2022
r1i5n16: MemFree:        186063876 kB
End Prologue v2.5.3 Mon Jan 17 16:14:18 EST 2022
JOBID  QSTAT_OUT 1967901
EUID 0
WORKSPACE /p/work1
PBS_HOME /var/spool/pbs
JOB_ID 1967901.pbsserver
whoami root
LOG /p/work1/PBS/prologue/1967901.pbsserver
whoami root
file workspace /p/work1: directory
file /p /p: directory
PBS_REQUESTED_CPH = 5760
PBS_REQUESTED_CPS = 20736000
jobStarter
Information: Please note that compiler is Intel but /p/app/gnu/8.2.0/bin is now also in PATH
/p/work1/ckegan/BOX/IceII_1000atm_230K
r1i5n16
Mon Jan 17 16:14:20 EST 2022
LAMMPS (7 Jan 2022)
using multi-threaded neighbor list subroutines

include		in.partitions
variable        pid world 0
include		in.temp
variable        temperature equal 230
variable	tempDamp equal 100.0
include		in.pressure
variable        pressure equal 1000
variable        pressureDamp equal 1000.0 # This is 1 ps
include		in.seed
variable        seed world 745823

units		real
atom_style	full
include		in.box
box tilt large
read_data       iceII.data
Reading data file ...
  triclinic box = (-10.680001 -9.239317 0.00055) to (35.999999 12.229315 21.859449) with tilt (-9.157151 -12.209534 -18.481617)
  reading atoms ...
  2592 atoms
  scanning bonds ...
  scanning angles ...
  reading bonds ...
  1728 bonds
  reading angles ...
  864 angles
Finding 1-2 1-3 1-4 neighbors ...
     2 = max # of 1-2 neighbors
     1 = max # of 1-3 neighbors
     1 = max # of 1-4 neighbors
     2 = max # of special neighbors
include 	in.setup
variable	out_freq equal 500
variable	out_freq2 equal 500

timestep	2.0

neigh_modify    delay 7 every 1

include		in.tip4p
# This is TIP4P/Ice

# create groups ###
group ox type 2
864 atoms in group ox
group hy type 1
1728 atoms in group hy

# set charges - beside manually ###
set group ox charge -1.1794
Setting atom values ...
  864 settings made for charge
set group hy charge 0.5897
Setting atom values ...
  1728 settings made for charge

# ### TIP3P Potential Parameters ###
pair_style lj/cut/tip4p/long 2 1 1 1 0.1577 8.5
pair_coeff 1 1*2 0.000 0.000
pair_coeff 2 2 0.21084 3.1668
bond_style  harmonic
bond_coeff  1 450 0.9572
angle_style harmonic
angle_coeff 1 55 104.52
kspace_style pppm/tip4p 1.0e-5
pair_modify tail yes

thermo          500
thermo_style 	custom step temp pe etotal epair emol press lx ly lz xy xz yz vol pxx pyy pzz pxy pxz pyz cella cellb cellc cellalpha cellbeta cellgamma

restart 	500 restart.lmp.0 restart2.lmp.0

include         in.dump
dump            myDump all atom 500 dump.water.0
dump            myDump2 all dcd 500 dump.dcd
dump_modify     myDump append yes
dump_modify     myDump2 append yes

timer           timeout 05:00:00 every 1000
New timer settings: style=normal  mode=nosync  timeout=05:00:00

fix 		1 all shake 1e-6 200 0 b 1 a 1
Finding SHAKE clusters ...
       0 = # of size 2 clusters
       0 = # of size 3 clusters
       0 = # of size 4 clusters
     864 = # of frozen angles
  find clusters CPU = 0.002 seconds
fix             2 all nph tri 1000 1000 1000
fix             3 all temp/csvr 230 230 100 745823
velocity 	all create 230 745823 dist gaussian

run             500000
PPPM initialization ...
  extracting TIP4P info from pair style
  G vector (1/distance) = 0.38122501
  grid = 50 40 64
  stencil order = 5
  estimated absolute RMS force accuracy = 0.0021221078
  estimated relative force accuracy = 6.3906647e-06
  3d grid and FFT values/proc = 14229 4000
  generated 0 of 1 mixed pair_coeff terms from geometric mixing rule
Last active /omp style is kspace_style pppm/tip4p/omp
  update every 1 steps, delay 7 steps, check yes
Setting up Verlet run ...
  Unit style    : real
  Current step  : 0
  Time step     : 2
  Walltime left : 4:59:59.88
Step Temp PotEng TotEng E_pair E_mol Press Lx Ly Lz Xy Xz Yz Volume Pxx Pyy Pzz Pxy Pxz Pyz Cella Cellb Cellc CellAlpha CellBeta CellGamma
0          230   -13868.516   -12684.508   -13868.516            0   -1055.1314        46.68    21.468632    21.858899    -9.157151   -12.209534   -18.481617    21906.021   -4925.6401    -3353.737    5113.9829    1981.1588    3796.3376    1671.6928        46.68    23.339999    31.119999        113.1    113.10001    113.10001
Averages over the last 501 of 1001 rows, steps 250000 to 500000:
Temp PotEng TotEng E_pair E_mol Press Lx Ly Lz Xy Xz Yz Volume Pxx Pyy Pzz Pxy Pxz Pyz Cella Cellb Cellc CellAlpha CellBeta CellGamma
229.887 -12733.3 -11549.8 -12733.3 0 962.259 46.9793 21.5998 21.9468 -9.23617 -21.5437 2.94577 22270.1 986.599 982.901 917.276 21.8827 -11.0253 4.87841 46.9793 23.492 30.8948 68.7874 134.213 113.151
Loop time of 1022.11 on 48 procs for 500000 steps with 2592 atoms

unfix		3
unfix		2
unfix		1

write_data	data.final.0
System init for write_data ...
PPPM initialization ...
  extracting TIP4P info from pair style
  G vector (1/distance) = 0.38074518
  grid = 50 40 54
  stencil order = 5
  estimated absolute RMS force accuracy = 0.0021592114
  estimated relative force accuracy = 6.502401e-06
  3d grid and FFT values/proc = 11832 4000
  generated 0 of 1 mixed pair_coeff terms from geometric mixing rule
Last active /omp style is kspace_style pppm/tip4p/omp

write_restart   restart.lmp.0
System init for write_restart ...
PPPM initialization ...
  extracting TIP4P info from pair style
  G vector (1/distance) = 0.38074518
  grid = 50 40 54
  stencil order = 5
  estimated absolute RMS force accuracy = 0.0021592114
  estimated relative force accuracy = 6.502401e-06
  3d grid and FFT values/proc = 11832 4000
  generated 0 of 1 mixed pair_coeff terms from geometric mixing rule
Last active /omp style is kspace_style pppm/tip4p/omp
cp: cannot stat restart2.lmp: No such file or directory
cp: cannot stat restart.lmp: No such file or directory
cp: cannot stat data.final: No such file or directory
Mon Jan 17 16:31:33 EST 2022
Start Epilogue v2.5.3 Mon Jan 17 16:31:34 EST 2022
                    % of     user     user     user    total    total
Node               limit      max    limit  current  current     phys
r1i5n16             1.75     3.06   175.00     0.17     5.31   187.31
Memory summary:
		min    3.06 GB
		max    3.06 GB
		ave    3.06 GB
End Epilogue v2.5.3 Mon Jan 17 16:31:37 EST 2022
